Circuit: * D:\Sync\Sync - Projects\PRJ-003 - Mu-Tron Phasor II\Simulation\Draft1.asc

Direct Newton iteration for .op point succeeded.

Date: Sat Oct 03 20:46:17 2020
Total elapsed time: 0.050 seconds.

tnom = 27
temp = 27
method = modified trap
totiter = 2089
traniter = 2082
tranpoints = 1042
accept = 1042
rejected = 0
matrix size = 10
fillins = 0
solver = Normal
Matrix Compiler1: 480 bytes object code size  0.1/0.1/[0.1]
Matrix Compiler2: off  [0.1]/0.1/0.1

