Circuit: * D:\Sync\Sync - Projects\PRJ-003 - Mu-Tron Phasor II\Simulation\LPB1.asc

Direct Newton iteration for .op point succeeded.

Date: Sun Dec 15 19:50:13 2019
Total elapsed time: 0.141 seconds.

tnom = 27
temp = 27
method = modified trap
totiter = 2090
traniter = 2082
tranpoints = 1042
accept = 1042
rejected = 0
matrix size = 10
fillins = 0
solver = Normal
Matrix Compiler1: 560 bytes object code size  0.1/0.1/[0.1]
Matrix Compiler2: 762 bytes object code size  0.1/0.1/[0.1]

