Circuit: * D:\Sync\Sync - Projects\PRJ-003 - Mu-Tron Phasor II\Simulation\Mu-Tron Phasor II Power Supply.asc

.OP point found by inspection.

Date: Sun Jun 07 22:46:36 2020
Total elapsed time: 0.432 seconds.

tnom = 27
temp = 27
method = modified trap
totiter = 85811
traniter = 85811
tranpoints = 33023
accept = 22553
rejected = 10470
matrix size = 19
fillins = 12
solver = Normal
Matrix Compiler1: 1.82 KB object code size  0.3/0.2/[0.1]
Matrix Compiler2: 1.72 KB object code size  0.1/0.2/[0.1]

