Circuit: * D:\Sync\Sync - Projects\PRJ-003 - Mu-Tron Phasor II\Simulation\Mu-Tron Phasor II.asc

R63: both pins shorted together -- ignoring.
WARNING: Node OUT is floating.

WARNING: Less than two connections to node OUT.  This node is used by R37.
WARNING: Less than two connections to node N043.  This node is used by D13.
Early termination of direct N-R iteration.
Direct Newton iteration failed to find .op point.  (Use ".option noopiter" to skip.)
Starting Gmin stepping
Gmin = 10
Gmin = 1.07374
Gmin = 0.115292
Gmin = 0.0123794
Gmin = 0.00132923
Gmin = 0.000142725
Gmin = 1.5325e-005
Gmin = 1.6455e-006
Gmin = 1.76685e-007
Gmin = 1.89714e-008
Gmin = 2.03704e-009
Gmin = 2.18725e-010
Gmin = 2.34854e-011
Gmin = 2.52173e-012
Gmin = 2.70769e-013
Gmin = 0
Gmin stepping succeeded in finding the operating point.

.step ldr1=1000
.step ldr1=5000
.step ldr1=10000
.step ldr1=25000
.step ldr1=50000

Date: Thu Dec 19 23:03:56 2019
Total elapsed time: 4.169 seconds.

tnom = 27
temp = 27
method = modified trap
totiter = 5013
traniter = 4693
tranpoints = 2170
accept = 1614
rejected = 556
matrix size = 127
fillins = 147
solver = Normal
Thread vector: 60.4/43.8[4] 9.5/7.1[4] 36.5/13.9[4] 1.0/41.4[1]  2592/500
Matrix Compiler1: 30.95 KB object code size  5.6/4.0/[1.8]
Matrix Compiler2: 16.63 KB object code size  2.7/4.1/[1.6]

