Circuit: * D:\Sync\Sync - Projects\PRJ-003 - Mu-Tron Phasor II\Simulation\Mu-Tron Phasor II - Only LFO.asc

R63: both pins shorted together -- ignoring.
WARNING: Less than two connections to node N014.  This node is used by D13.
Direct Newton iteration for .op point succeeded.
.step sweeprange=0.1 sweepoffset=0.1
.step sweeprange=0.25 sweepoffset=0.1
.step sweeprange=0.5 sweepoffset=0.1
.step sweeprange=0.75 sweepoffset=0.1
.step sweeprange=0.9 sweepoffset=0.1
.step sweeprange=0.1 sweepoffset=0.25
.step sweeprange=0.25 sweepoffset=0.25
.step sweeprange=0.5 sweepoffset=0.25
.step sweeprange=0.75 sweepoffset=0.25
.step sweeprange=0.9 sweepoffset=0.25
.step sweeprange=0.1 sweepoffset=0.5
.step sweeprange=0.25 sweepoffset=0.5
.step sweeprange=0.5 sweepoffset=0.5
.step sweeprange=0.75 sweepoffset=0.5
.step sweeprange=0.9 sweepoffset=0.5
.step sweeprange=0.1 sweepoffset=0.75
.step sweeprange=0.25 sweepoffset=0.75
.step sweeprange=0.5 sweepoffset=0.75
.step sweeprange=0.75 sweepoffset=0.75
.step sweeprange=0.9 sweepoffset=0.75
.step sweeprange=0.1 sweepoffset=0.9
.step sweeprange=0.25 sweepoffset=0.9
.step sweeprange=0.5 sweepoffset=0.9
.step sweeprange=0.75 sweepoffset=0.9
.step sweeprange=0.9 sweepoffset=0.9

Date: Sat Feb 01 01:49:36 2020
Total elapsed time: 6.728 seconds.

tnom = 27
temp = 27
method = modified trap
totiter = 7867
traniter = 7836
tranpoints = 3000
accept = 2356
rejected = 644
matrix size = 65
fillins = 98
solver = Normal
Thread vector: 17.8/10.1[3] 4.0/3.6[2] 3.9/3.6[1] 0.3/2.1[1]  2592/500
Matrix Compiler1: 13.30 KB object code size  3.6/2.3/[1.0]
Matrix Compiler2: 7.77 KB object code size  2.1/1.4/[0.5]

