Circuit: * D:\Sync\Sync - Projects\PRJ-003 - Mu-Tron Phasor II\Simulation\osc_test.asc

Direct Newton iteration for .op point succeeded.

Date: Sun Dec 15 09:02:37 2019
Total elapsed time: 0.114 seconds.

tnom = 27
temp = 27
method = modified trap
totiter = 2460
traniter = 2451
tranpoints = 1175
accept = 1142
rejected = 33
matrix size = 17
fillins = 16
solver = Normal
Matrix Compiler1: 1.81 KB object code size  0.4/0.2/[0.1]
Matrix Compiler2: 2.12 KB object code size  0.2/0.2/[0.2]

