Circuit: * D:\Sync\Sync - Projects\PRJ-003 - Mu-Tron Phasor II\Simulation\oscillator_fixed_comparison.asc

Direct Newton iteration for .op point succeeded.

Date: Fri Oct 09 19:46:29 2020
Total elapsed time: 0.431 seconds.

tnom = 27
temp = 27
method = modified trap
totiter = 4100
traniter = 4091
tranpoints = 1626
accept = 1453
rejected = 173
matrix size = 30
fillins = 26
solver = Normal
Thread vector: 123.5/14.4[3] 47.4/19.7[3] 23.4/16.5[3] 0.3/9.0[1]  2592/500
Matrix Compiler1: 3.36 KB object code size  9.8/1.9/[0.8]
Matrix Compiler2: 3.97 KB object code size  18.6/4.5/[0.3]

