Circuit: * D:\Sync\Sync - Projects\PRJ-003 - Mu-Tron Phasor II\Simulation\oscillator_fixed_extended.asc

R22: both pins shorted together -- ignoring.
Direct Newton iteration for .op point succeeded.
.step potrotoffset=0.01 potrotrange=0.01
.step potrotoffset=0.33 potrotrange=0.01
.step potrotoffset=0.66 potrotrange=0.01
.step potrotoffset=0.99 potrotrange=0.01
.step potrotoffset=0.01 potrotrange=0.33
.step potrotoffset=0.33 potrotrange=0.33
.step potrotoffset=0.66 potrotrange=0.33
.step potrotoffset=0.99 potrotrange=0.33
.step potrotoffset=0.01 potrotrange=0.66
.step potrotoffset=0.33 potrotrange=0.66
.step potrotoffset=0.66 potrotrange=0.66
.step potrotoffset=0.99 potrotrange=0.66
.step potrotoffset=0.01 potrotrange=0.99
.step potrotoffset=0.33 potrotrange=0.99
.step potrotoffset=0.66 potrotrange=0.99
.step potrotoffset=0.99 potrotrange=0.99

Date: Sun Dec 15 23:15:03 2019
Total elapsed time: 34.800 seconds.

tnom = 27
temp = 27
method = modified trap
totiter = 90382
traniter = 90365
tranpoints = 22803
accept = 16915
rejected = 5888
matrix size = 44
fillins = 49
solver = Normal
Thread vector: 17.5/8.5[2] 2.8/3.1[1] 2.5/3.1[1] 0.2/1.5[1]  2592/500
Matrix Compiler1: 5.83 KB object code size  1.1/1.2/[0.3]
Matrix Compiler2: 5.24 KB object code size  1.0/0.6/[0.4]

