Circuit: * D:\Sync\Sync - Projects\PRJ-003 - Mu-Tron Phasor II\Simulation\oscillator_fixed.asc

Direct Newton iteration for .op point succeeded.

Date: Sat Feb 01 01:59:39 2020
Total elapsed time: 0.138 seconds.

tnom = 27
temp = 27
method = modified trap
totiter = 4143
traniter = 4134
tranpoints = 1646
accept = 1474
rejected = 172
matrix size = 30
fillins = 26
solver = Normal
Thread vector: 18.2/7.8[3] 3.0/2.9[1] 2.8/2.1[3] 0.2/1.8[1]  2592/500
Matrix Compiler1: 3.36 KB object code size  1.0/0.4/[0.2]
Matrix Compiler2: 3.97 KB object code size  0.5/0.6/[0.3]

